@<TRIPOS>MOLECULE
*****
 15 14 0 0 0
SMALL
GASTEIGER

@<TRIPOS>ATOM
      1 C          -1.9390    1.3830   -0.1970 C.3     1  UNL1        0.5387
      2 S          -0.6950    2.6680    0.2530 S.O2    1  UNL1        0.1638
      3 N           0.6040    1.7830    0.4740 N.3     1  UNL1        0.0775
      4 S           1.2940    1.3190   -0.8720 S.O2    1  UNL1        0.1638
      5 F          -3.1710    1.6770    0.3280 F       1  UNL1       -0.1492
      6 F          -2.1410    1.2420   -1.5350 F       1  UNL1       -0.1492
      7 F          -1.6220    0.1510    0.3030 F       1  UNL1       -0.1492
      8 F           1.9360   -0.8000    0.6120 F       1  UNL1       -0.1492
      9 F           3.3040   -0.4360   -1.0520 F       1  UNL1       -0.1492
     10 F           3.3760    0.8330    0.7250 F       1  UNL1       -0.1492
     11 O          -0.6780    3.6440   -0.8380 O.2     1  UNL1       -0.1468
     12 O          -1.1800    3.2420    1.5160 O.2     1  UNL1       -0.1468
     13 O           2.0940    2.3260   -1.5710 O.2     1  UNL1       -0.1468
     14 O           0.4760    0.4710   -1.7420 O.2     1  UNL1       -0.1468
     15 C           2.5230    0.1900   -0.1250 C.3     1  UNL1        0.5387
@<TRIPOS>BOND
     1     1     6    1
     2     1     5    1
     3     1     7    1
     4     1     2    1
     5     2    11    2
     6     2    12    2
     7     2     3    1
     8     3     4    1
     9     4    13    2
    10     4    14    2
    11     4    15    1
    12     8    15    1
    13     9    15    1
    14    10    15    1
